Circuit: * C:\Users\shiny\Documents\GitHub\audio-signal-processing\noise_supression\ltspice\LPF_HPF_for_DAC_and_earphone.asc


Date: Sun Oct 07 08:52:58 2018
Total elapsed time: 0.035 seconds.

tnom = 27
temp = 27
method = trap
totiter = 0
traniter = 0
tranpoints = 0
accept = 0
rejected = 0
matrix size = 4
fillins = 1
solver = Normal

